<?xml version="1.0" ?>
<net name="loop_2d_add" version="10">
	<layers>
		<layer id="0" name="trip_count/Output_0/Data__const" type="Const" version="opset1">
			<data element_type="i64" offset="0" shape="1" size="8"/>
			<output>
				<port id="1" precision="I64">
					<dim>1</dim>
				</port>
			</output>
		</layer>
		<layer id="1" name="a_final5/execution_cond/Output_0/Data__const" type="Const" version="opset1">
			<data element_type="boolean" offset="8" shape="" size="1"/>
			<output>
				<port id="1" precision="BOOL"/>
			</output>
		</layer>
		<layer id="2" name="a_init" type="Parameter" version="opset1">
			<data element_type="f32" shape="1,2"/>
			<output>
				<port id="0" precision="FP32">
					<dim>1</dim>
					<dim>2</dim>
				</port>
			</output>
		</layer>
		<layer id="3" name="a_final5" type="Loop" version="opset5">
			<input>
				<port id="0">
					<dim>1</dim>
				</port>
				<port id="1"/>
				<port id="2">
					<dim>1</dim>
					<dim>2</dim>
				</port>
			</input>
			<output>
				<port id="3" precision="FP32">
					<dim>1</dim>
					<dim>2</dim>
				</port>
				<port id="4" precision="FP32">
					<dim>3</dim>
					<dim>1</dim>
					<dim>2</dim>
				</port>
			</output>
			<port_map>
				<input external_port_id="1" internal_layer_id="0"/>
				<input external_port_id="2" internal_layer_id="2"/>
				<output external_port_id="-1" internal_layer_id="1" purpose="execution_condition"/>
				<output external_port_id="3" internal_layer_id="5"/>
				<output axis="0" external_port_id="4" internal_layer_id="8"/>
			</port_map>
			<back_edges>
				<edge from-layer="1" from-port="0" to-layer="0" to-port="0"/>
				<edge from-layer="5" from-port="0" to-layer="2" to-port="0"/>
			</back_edges>
			<body>
				<layers>
					<layer id="0" name="cond_in" type="Parameter" version="opset1">
						<data element_type="boolean" shape=""/>
						<output>
							<port id="0" precision="BOOL"/>
						</output>
					</layer>
					<layer id="1" name="cond_identity/sink_port_0" type="Result" version="opset1">
						<input>
							<port id="0"/>
						</input>
					</layer>
					<layer id="2" name="a_in" type="Parameter" version="opset1">
						<data element_type="f32" shape="1,2"/>
						<output>
							<port id="0" precision="FP32">
								<dim>1</dim>
								<dim>2</dim>
							</port>
						</output>
					</layer>
					<layer id="3" name="b/Output_0/Data__const" type="Const" version="opset1">
						<data element_type="f32" offset="13" shape="1,2" size="8"/>
						<output>
							<port id="1" precision="FP32">
								<dim>1</dim>
								<dim>2</dim>
							</port>
						</output>
					</layer>
					<layer id="4" name="loop_body_add" type="Add" version="opset1">
						<input>
							<port id="0">
								<dim>1</dim>
								<dim>2</dim>
							</port>
							<port id="1">
								<dim>1</dim>
								<dim>2</dim>
							</port>
						</input>
						<output>
							<port id="2" precision="FP32">
								<dim>1</dim>
								<dim>2</dim>
							</port>
						</output>
					</layer>
					<layer id="5" name="loop_body_add/sink_port_0" type="Result" version="opset1">
						<input>
							<port id="0">
								<dim>1</dim>
								<dim>2</dim>
							</port>
						</input>
					</layer>
					<layer id="6" name="11_input_port_1/value/Output_0/Data__const" type="Const" version="opset1">
						<data element_type="i64" offset="21" shape="1" size="8"/>
						<output>
							<port id="1" precision="I64">
								<dim>1</dim>
							</port>
						</output>
					</layer>
					<layer id="7" name="11" type="Unsqueeze" version="opset1">
						<input>
							<port id="0">
								<dim>1</dim>
								<dim>2</dim>
							</port>
							<port id="1">
								<dim>1</dim>
							</port>
						</input>
						<output>
							<port id="2" precision="FP32">
								<dim>3</dim>
								<dim>1</dim>
								<dim>2</dim>
							</port>
						</output>
					</layer>
					<layer id="8" name="output_accumulator/sink_port_0" type="Result" version="opset1">
						<input>
							<port id="0">
								<dim>3</dim>
								<dim>1</dim>
								<dim>2</dim>
							</port>
						</input>
					</layer>
				</layers>
				<edges>
					<edge from-layer="0" from-port="0" to-layer="1" to-port="0"/>
					<edge from-layer="2" from-port="0" to-layer="4" to-port="0"/>
					<edge from-layer="3" from-port="1" to-layer="4" to-port="1"/>
					<edge from-layer="4" from-port="2" to-layer="5" to-port="0"/>
					<edge from-layer="4" from-port="2" to-layer="7" to-port="0"/>
					<edge from-layer="6" from-port="1" to-layer="7" to-port="1"/>
					<edge from-layer="7" from-port="2" to-layer="8" to-port="0"/>
				</edges>
			</body>
		</layer>
		<layer id="4" name="122_input_port_1/value124_const" type="Const" version="opset1">
			<data element_type="f32" offset="9" shape="" size="4"/>
			<output>
				<port id="1" precision="FP32"/>
			</output>
		</layer>
		<layer id="5" name="a_final" type="Add" version="opset1">
			<input>
				<port id="0">
					<dim>1</dim>
					<dim>2</dim>
				</port>
				<port id="1"/>
			</input>
			<output>
				<port id="2" precision="FP32">
					<dim>1</dim>
					<dim>2</dim>
				</port>
			</output>
		</layer>
		<layer id="6" name="a_final/sink_port_0" type="Result" version="opset1">
			<input>
				<port id="0">
					<dim>1</dim>
					<dim>2</dim>
				</port>
			</input>
		</layer>
		<layer id="7" name="126_input_port_1/value128_const" type="Const" version="opset1">
			<data element_type="f32" offset="9" shape="" size="4"/>
			<output>
				<port id="1" precision="FP32"/>
			</output>
		</layer>
		<layer id="8" name="a_values" type="Add" version="opset1">
			<input>
				<port id="0">
					<dim>3</dim>
					<dim>1</dim>
					<dim>2</dim>
				</port>
				<port id="1"/>
			</input>
			<output>
				<port id="2" precision="FP32">
					<dim>3</dim>
					<dim>1</dim>
					<dim>2</dim>
				</port>
			</output>
		</layer>
		<layer id="9" name="a_values/sink_port_0" type="Result" version="opset1">
			<input>
				<port id="0">
					<dim>3</dim>
					<dim>1</dim>
					<dim>2</dim>
				</port>
			</input>
		</layer>
	</layers>
	<edges>
		<edge from-layer="0" from-port="1" to-layer="3" to-port="0"/>
		<edge from-layer="1" from-port="1" to-layer="3" to-port="1"/>
		<edge from-layer="2" from-port="0" to-layer="3" to-port="2"/>
		<edge from-layer="3" from-port="3" to-layer="5" to-port="0"/>
		<edge from-layer="4" from-port="1" to-layer="5" to-port="1"/>
		<edge from-layer="5" from-port="2" to-layer="6" to-port="0"/>
		<edge from-layer="3" from-port="4" to-layer="8" to-port="0"/>
		<edge from-layer="7" from-port="1" to-layer="8" to-port="1"/>
		<edge from-layer="8" from-port="2" to-layer="9" to-port="0"/>
	</edges>
	<meta_data>
		<MO_version value="unknown version"/>
		<cli_parameters>
			<caffe_parser_path value="DIR"/>
			<data_type value="float"/>
			<disable_nhwc_to_nchw value="False"/>
			<disable_omitting_optional value="False"/>
			<disable_resnet_optimization value="False"/>
			<disable_weights_compression value="False"/>
			<enable_concat_optimization value="False"/>
			<enable_flattening_nested_params value="False"/>
			<enable_ssd_gluoncv value="False"/>
			<extensions value="DIR"/>
			<framework value="onnx"/>
			<freeze_placeholder_with_value value="{}"/>
			<generate_deprecated_IR_V7 value="False"/>
			<input_model value="DIR/loop_2d_add.onnx"/>
			<input_model_is_text value="False"/>
			<k value="DIR/CustomLayersMapping.xml"/>
			<keep_shape_ops value="True"/>
			<legacy_mxnet_model value="False"/>
			<log_level value="ERROR"/>
			<mean_scale_values value="{}"/>
			<mean_values value="()"/>
			<model_name value="loop_2d_add"/>
			<output_dir value="DIR"/>
			<placeholder_data_types value="{}"/>
			<progress value="False"/>
			<remove_memory value="False"/>
			<remove_output_softmax value="False"/>
			<reverse_input_channels value="False"/>
			<save_params_from_nd value="False"/>
			<scale_values value="()"/>
			<silent value="False"/>
			<static_shape value="False"/>
			<stream_output value="False"/>
			<unset unset_cli_parameters="batch, counts, disable_fusing, disable_gfusing, finegrain_fusing, input, input_checkpoint, input_meta_graph, input_proto, input_shape, input_symbol, mean_file, mean_file_offsets, move_to_preprocess, nd_prefix_name, output, placeholder_shapes, pretrained_model_name, saved_model_dir, saved_model_tags, scale, tensorboard_logdir, tensorflow_custom_layer_libraries, tensorflow_custom_operations_config_update, tensorflow_object_detection_api_pipeline_config, tensorflow_use_custom_operations_config, transformations_config"/>
		</cli_parameters>
	</meta_data>
</net>
